[TITLE]
;;Project Title/Notes

[OPTIONS]
;;Option             Value
FLOW_UNITS           CFS
INFILTRATION         MODIFIED_GREEN_AMPT
FLOW_ROUTING         DYNWAVE
LINK_OFFSETS         ELEVATION
MIN_SLOPE            0
ALLOW_PONDING        NO
SKIP_STEADY_STATE    NO

START_DATE           08/21/2018
START_TIME           20:00:00
REPORT_START_DATE    08/21/2018
REPORT_START_TIME    20:00:00
END_DATE             09/28/2018
END_TIME             23:00:00
SWEEP_START          01/01
SWEEP_END            12/31
DRY_DAYS             5
REPORT_STEP          00:01:00
WET_STEP             00:01:00
DRY_STEP             00:05:00
ROUTING_STEP         0:00:01 

INERTIAL_DAMPING     PARTIAL
NORMAL_FLOW_LIMITED  BOTH
FORCE_MAIN_EQUATION  H-W
VARIABLE_STEP        0.75
LENGTHENING_STEP     0
MIN_SURFAREA         12.566
MAX_TRIALS           8
HEAD_TOLERANCE       0.005
SYS_FLOW_TOL         5
LAT_FLOW_TOL         5
MINIMUM_STEP         0.5
THREADS              1

[EVAPORATION]
;;Data Source    Parameters
;;-------------- ----------------
CONSTANT         0.0
DRY_ONLY         NO

[RAINGAGES]
;;Name           Format    Interval SCF      Source    
;;-------------- --------- ------ ------ ----------
Gage1            INTENSITY 1:00     1.0      TIMESERIES Aug2018_Sep2018 

[SUBCATCHMENTS]
;;Name           Rain Gage        Outlet           Area     %Imperv  Width    %Slope   CurbLen  SnowPack        
;;-------------- ---------------- ---------------- -------- -------- -------- -------- -------- ----------------
;The whole Towlot s lumped into a single sub-catchment
S1               Gage1            J1               34.74    91       1237     0.65     0                        

[SUBAREAS]
;;Subcatchment   N-Imperv   N-Perv     S-Imperv   S-Perv     PctZero    RouteTo    PctRouted 
;;-------------- ---------- ---------- ---------- ---------- ---------- ---------- ----------
S1               0.011       0.1        0.04         1          26         OUTLET    

[INFILTRATION]
;;Subcatchment   Suction    Ksat       IMD       
;;-------------- ---------- ---------- ----------
S1               3.5        0.5        0.25      

[JUNCTIONS]
;;Name           Elevation  MaxDepth   InitDepth  SurDepth   Aponded   
;;-------------- ---------- ---------- ---------- ---------- ----------
J1               68         0          0          0          0         

[OUTFALLS]
;;Name           Elevation  Type       Stage Data       Gated    Route To        
;;-------------- ---------- ---------- ---------------- -------- ----------------
Out1             57         FREE                        NO                       

[STORAGE]
;;Name           Elev.    MaxDepth   InitDepth  Shape      Curve Name/Params            N/A      Fevap    Psi      Ksat     IMD     
;;-------------- -------- ---------- ----------- ---------- ---------------------------- -------- --------          -------- --------
ST1              48.79    12.79      11         TABULAR    TOW_ALL_STORAGE              0        0        0        0.025    0.01    
ST2              57       6          0          TABULAR    Tank                         0        0.5      0        0.03     0       

[CONDUITS]
;;Name           From Node        To Node          Length     Roughness  InOffset   OutOffset  InitFlow   MaxFlow   
;;-------------- ---------------- ---------------- ---------- ---------- ---------- ---------- ---------- ----------
C2               J1               ST1              268        0.01       68         57         0          0         
C3               ST1              ST2              5.5        0.01       *          *          0          0         

[WEIRS]
;;Name           From Node        To Node          Type         CrestHt    Qcoeff     Gated    EndCon   EndCoeff   Surcharge  RoadWidth  RoadSurf  
;;-------------- ---------------- ---------------- ------------ ---------- ---------- -------- -------- ---------- ---------- ---------- ----------
W1               ST2              Out1             V-NOTCH      59.75      15         NO       0        0          YES       

[XSECTIONS]
;;Link           Shape        Geom1            Geom2      Geom3      Geom4      Barrels    Culvert   
;;-------------- ------------ ---------------- ---------- ---------- ---------- ---------- ----------
C2               CIRCULAR     4                0          0          0          1                    
C3               CIRCULAR     3                0          0          0          1                    
W1               TRIANGULAR   1                1          1          1         

[POLLUTANTS]
;;Name           Units  Crain      Cgw        Crdii      Kdecay     SnowOnly   Co-Pollutant     Co-Frac    Cdwf       Cinit     
;;-------------- ------ ---------- ---------- ---------- ---------- ---------- ---------------- ---------- ---------- ----------
TSS              MG/L   0.0        0.0        0.0        0.0        NO         *                0.0        0.0        0.0       

[LANDUSES]
;;               Sweeping   Fraction   Last      
;;Name           Interval   Available  Swept     
;;-------------- ---------- ---------- ----------
ParkingLot       0          0          0         

[COVERAGES]
;;Subcatchment   Land Use         Percent   
;;-------------- ---------------- ----------
S1               ParkingLot       100       

[LOADINGS]
;;Subcatchment   Pollutant        Buildup   
;;-------------- ---------------- ----------

[BUILDUP]
;;Land Use       Pollutant        Function   Coeff1     Coeff2     Coeff3     Per Unit  
;;-------------- ---------------- ---------- ---------- ---------- ---------- ----------
ParkingLot       TSS              EXP        28.12      0.228      0          AREA      

[WASHOFF]
;;Land Use       Pollutant        Function   Coeff1     Coeff2     SweepRmvl  BmpRmvl   
;;-------------- ---------------- ---------- ---------- ---------- ---------- ----------
ParkingLot       TSS              EXP        0.1        0.011      0.0        0.0       

[TREATMENT]
;;Node           Pollutant        Function  
;;-------------- ---------------- ----------
ST1              TSS              C=STEP(100-FLOW)*(3+(TSS-3)*exp(-0.35/DEPTH*DT/3600))
ST2              TSS              C=STEP(100-FLOW)*(0.0+(TSS-0.0)*exp(-0.06876/DEPTH*DT/3600))+(1-STEP(100-FLOW))*TSS

[CURVES]
;;Name           Type       X-Value    Y-Value   
;;-------------- ---------- ---------- ----------
10_yr            Rating     9.5        0         
10_yr                       9.7        0         
10_yr                       9.9        0         
10_yr                       10.1       0         
10_yr                       10.3       0         
10_yr                       10.5       0         
10_yr                       10.7       0         
10_yr                       10.9       0         
10_yr                       11.1       0.1       
10_yr                       11.3       0.1       
10_yr                       11.5       0.1       
10_yr                       11.7       0.1       
10_yr                       11.9       0.1       
10_yr                       12.1       0.1       
10_yr                       12.3       0.1       
10_yr                       12.5       0.1       
10_yr                       12.7       2.9       
10_yr                       12.9       5.8       
10_yr                       13.1       8.6       
10_yr                       13.3       12.5      
10_yr                       13.5       17.5      
10_yr                       13.7       25        
10_yr                       13.9       35        
10_yr                       14.1       50        
10_yr                       14.3       60        
10_yr                       14.5       80        
10_yr                       14.6       90        
;
Tow_lot_pond     Storage    0          1000      
Tow_lot_pond                8.5        24920     
Tow_lot_pond                9.5        34371     
Tow_lot_pond                12.5       54454     
Tow_lot_pond                14.6       62053     
;
Tank             Storage    0          21.42     
Tank                        4          21.42     
;
tow              Storage    0          34371     
tow                         0.18       33166.66667
tow                         0.59       32756.09756
tow                         0.99       35000     
tow                         1.39       38250     
tow                         1.79       43250     
tow                         2.19       48250     
tow                         2.59       49250     
tow                         3          53658.53659
tow                         3.4        60000     
tow                         3.79       71794.87179
;
TOW_ALL_STORAGE  Storage    0          15000     
TOW_ALL_STORAGE             2          20000     
TOW_ALL_STORAGE             4          25000     
TOW_ALL_STORAGE             9          32000     
TOW_ALL_STORAGE             9.19       33500     
TOW_ALL_STORAGE             9.59       33864     
TOW_ALL_STORAGE             9.99       34053     
TOW_ALL_STORAGE             10.39      35284.9   
TOW_ALL_STORAGE             10.79      37085.5   
TOW_ALL_STORAGE             11.19      39004.1   
TOW_ALL_STORAGE             11.59      40800.8   
TOW_ALL_STORAGE             11.99      42626.8   
TOW_ALL_STORAGE             12.39      44754.3   
TOW_ALL_STORAGE             12.79      47156.7   

[TIMESERIES]
;;Name           Date       Time       Value     
;;-------------- ---------- ---------- ----------
July01_Sept30_2018 7/1/2018   1:00       0         
July01_Sept30_2018 7/1/2018   2:00       0         
July01_Sept30_2018 7/1/2018   3:00       0         
July01_Sept30_2018 7/1/2018   4:00       0         
July01_Sept30_2018 7/1/2018   5:00       0         
July01_Sept30_2018 7/1/2018   6:00       0         
July01_Sept30_2018 7/1/2018   7:00       0         
July01_Sept30_2018 7/1/2018   8:00       0         
July01_Sept30_2018 7/1/2018   9:00       0         
July01_Sept30_2018 7/1/2018   10:00      0         
July01_Sept30_2018 7/1/2018   11:00      0         
July01_Sept30_2018 7/1/2018   12:00      0         
July01_Sept30_2018 7/1/2018   13:00      0         
July01_Sept30_2018 7/1/2018   14:00      0         
July01_Sept30_2018 7/1/2018   15:00      0         
July01_Sept30_2018 7/1/2018   16:00      0.07      
July01_Sept30_2018 7/1/2018   17:00      0.09      
July01_Sept30_2018 7/1/2018   18:00      0.005     
July01_Sept30_2018 7/1/2018   19:00      0         
July01_Sept30_2018 7/1/2018   20:00      0         
July01_Sept30_2018 7/1/2018   21:00      0         
July01_Sept30_2018 7/1/2018   22:00      0         
July01_Sept30_2018 7/1/2018   23:00      0         
July01_Sept30_2018 7/2/2018   0:00       0         
July01_Sept30_2018 7/2/2018   1:00       0         
July01_Sept30_2018 7/2/2018   2:00       0         
July01_Sept30_2018 7/2/2018   3:00       0         
July01_Sept30_2018 7/2/2018   4:00       0         
July01_Sept30_2018 7/2/2018   5:00       0         
July01_Sept30_2018 7/2/2018   6:00       0         
July01_Sept30_2018 7/2/2018   7:00       0         
July01_Sept30_2018 7/2/2018   8:00       0         
July01_Sept30_2018 7/2/2018   9:00       0         
July01_Sept30_2018 7/2/2018   10:00      0         
July01_Sept30_2018 7/2/2018   11:00      0         
July01_Sept30_2018 7/2/2018   12:00      0         
July01_Sept30_2018 7/2/2018   13:00      0         
July01_Sept30_2018 7/2/2018   14:00      0         
July01_Sept30_2018 7/2/2018   15:00      0         
July01_Sept30_2018 7/2/2018   16:00      0         
July01_Sept30_2018 7/2/2018   17:00      0         
July01_Sept30_2018 7/2/2018   18:00      0         
July01_Sept30_2018 7/2/2018   19:00      0         
July01_Sept30_2018 7/2/2018   20:00      0         
July01_Sept30_2018 7/2/2018   21:00      0         
July01_Sept30_2018 7/2/2018   22:00      0         
July01_Sept30_2018 7/2/2018   23:00      0         
July01_Sept30_2018 7/3/2018   0:00       0         
July01_Sept30_2018 7/3/2018   1:00       0         
July01_Sept30_2018 7/3/2018   2:00       0         
July01_Sept30_2018 7/3/2018   3:00       0         
July01_Sept30_2018 7/3/2018   4:00       0         
July01_Sept30_2018 7/3/2018   5:00       0         
July01_Sept30_2018 7/3/2018   6:00       0         
July01_Sept30_2018 7/3/2018   7:00       0         
July01_Sept30_2018 7/3/2018   8:00       0         
July01_Sept30_2018 7/3/2018   9:00       0         
July01_Sept30_2018 7/3/2018   10:00      0         
July01_Sept30_2018 7/3/2018   11:00      0         
July01_Sept30_2018 7/3/2018   12:00      0         
July01_Sept30_2018 7/3/2018   13:00      0         
July01_Sept30_2018 7/3/2018   14:00      0         
July01_Sept30_2018 7/3/2018   15:00      0         
July01_Sept30_2018 7/3/2018   16:00      0         
July01_Sept30_2018 7/3/2018   17:00      0         
July01_Sept30_2018 7/3/2018   18:00      0         
July01_Sept30_2018 7/3/2018   19:00      0         
July01_Sept30_2018 7/3/2018   20:00      0         
July01_Sept30_2018 7/3/2018   21:00      0         
July01_Sept30_2018 7/3/2018   22:00      0         
July01_Sept30_2018 7/3/2018   23:00      0         
July01_Sept30_2018 7/4/2018   0:00       0         
July01_Sept30_2018 7/4/2018   1:00       0         
July01_Sept30_2018 7/4/2018   2:00       0         
July01_Sept30_2018 7/4/2018   3:00       0         
July01_Sept30_2018 7/4/2018   4:00       0         
July01_Sept30_2018 7/4/2018   5:00       0         
July01_Sept30_2018 7/4/2018   6:00       0         
July01_Sept30_2018 7/4/2018   7:00       0         
July01_Sept30_2018 7/4/2018   8:00       0         
July01_Sept30_2018 7/4/2018   9:00       0         
July01_Sept30_2018 7/4/2018   10:00      0         
July01_Sept30_2018 7/4/2018   11:00      0         
July01_Sept30_2018 7/4/2018   12:00      0         
July01_Sept30_2018 7/4/2018   13:00      0         
July01_Sept30_2018 7/4/2018   14:00      0         
July01_Sept30_2018 7/4/2018   15:00      0         
July01_Sept30_2018 7/4/2018   16:00      0         
July01_Sept30_2018 7/4/2018   17:00      0.005     
July01_Sept30_2018 7/4/2018   18:00      0.05      
July01_Sept30_2018 7/4/2018   19:00      0.02      
July01_Sept30_2018 7/4/2018   20:00      0         
July01_Sept30_2018 7/4/2018   21:00      0         
July01_Sept30_2018 7/4/2018   22:00      0         
July01_Sept30_2018 7/4/2018   23:00      0         
July01_Sept30_2018 7/5/2018   0:00       0         
July01_Sept30_2018 7/5/2018   1:00       0         
July01_Sept30_2018 7/5/2018   2:00       0         
July01_Sept30_2018 7/5/2018   3:00       0         
July01_Sept30_2018 7/5/2018   4:00       0         
July01_Sept30_2018 7/5/2018   5:00       0         
July01_Sept30_2018 7/5/2018   6:00       0         
July01_Sept30_2018 7/5/2018   7:00       0         
July01_Sept30_2018 7/5/2018   8:00       0         
July01_Sept30_2018 7/5/2018   9:00       0         
July01_Sept30_2018 7/5/2018   10:00      0         
July01_Sept30_2018 7/5/2018   11:00      0         
July01_Sept30_2018 7/5/2018   12:00      0         
July01_Sept30_2018 7/5/2018   13:00      0         
July01_Sept30_2018 7/5/2018   14:00      0         
July01_Sept30_2018 7/5/2018   15:00      0         
July01_Sept30_2018 7/5/2018   16:00      0         
July01_Sept30_2018 7/5/2018   17:00      0         
July01_Sept30_2018 7/5/2018   18:00      0         
July01_Sept30_2018 7/5/2018   19:00      0         
July01_Sept30_2018 7/5/2018   20:00      0         
July01_Sept30_2018 7/5/2018   21:00      0         
July01_Sept30_2018 7/5/2018   22:00      0         
July01_Sept30_2018 7/5/2018   23:00      0         
July01_Sept30_2018 7/6/2018   0:00       0         
July01_Sept30_2018 7/6/2018   1:00       0         
July01_Sept30_2018 7/6/2018   2:00       0         
July01_Sept30_2018 7/6/2018   3:00       0         
July01_Sept30_2018 7/6/2018   4:00       0         
July01_Sept30_2018 7/6/2018   5:00       0         
July01_Sept30_2018 7/6/2018   6:00       0         
July01_Sept30_2018 7/6/2018   7:00       0         
July01_Sept30_2018 7/6/2018   8:00       0         
July01_Sept30_2018 7/6/2018   9:00       0         
July01_Sept30_2018 7/6/2018   10:00      0         
July01_Sept30_2018 7/6/2018   11:00      0         
July01_Sept30_2018 7/6/2018   12:00      0         
July01_Sept30_2018 7/6/2018   13:00      0         
July01_Sept30_2018 7/6/2018   14:00      0         
July01_Sept30_2018 7/6/2018   15:00      0         
July01_Sept30_2018 7/6/2018   16:00      0         
July01_Sept30_2018 7/6/2018   17:00      0         
July01_Sept30_2018 7/6/2018   18:00      0         
July01_Sept30_2018 7/6/2018   19:00      0         
July01_Sept30_2018 7/6/2018   20:00      0         
July01_Sept30_2018 7/6/2018   21:00      0         
July01_Sept30_2018 7/6/2018   22:00      0         
July01_Sept30_2018 7/6/2018   23:00      0         
July01_Sept30_2018 7/7/2018   0:00       0         
July01_Sept30_2018 7/7/2018   1:00       0         
July01_Sept30_2018 7/7/2018   2:00       0         
July01_Sept30_2018 7/7/2018   3:00       0         
July01_Sept30_2018 7/7/2018   4:00       0         
July01_Sept30_2018 7/7/2018   5:00       0         
July01_Sept30_2018 7/7/2018   6:00       0         
July01_Sept30_2018 7/7/2018   7:00       0         
July01_Sept30_2018 7/7/2018   8:00       0         
July01_Sept30_2018 7/7/2018   9:00       0         
July01_Sept30_2018 7/7/2018   10:00      0         
July01_Sept30_2018 7/7/2018   11:00      0         
July01_Sept30_2018 7/7/2018   12:00      0         
July01_Sept30_2018 7/7/2018   13:00      0         
July01_Sept30_2018 7/7/2018   14:00      0         
July01_Sept30_2018 7/7/2018   15:00      0         
July01_Sept30_2018 7/7/2018   16:00      0         
July01_Sept30_2018 7/7/2018   17:00      0         
July01_Sept30_2018 7/7/2018   18:00      0         
July01_Sept30_2018 7/7/2018   19:00      0         
July01_Sept30_2018 7/7/2018   20:00      0         
July01_Sept30_2018 7/7/2018   21:00      0         
July01_Sept30_2018 7/7/2018   22:00      0         
July01_Sept30_2018 7/7/2018   23:00      0         
July01_Sept30_2018 7/8/2018   0:00       0         
July01_Sept30_2018 7/8/2018   1:00       0         
July01_Sept30_2018 7/8/2018   2:00       0         
July01_Sept30_2018 7/8/2018   3:00       0         
July01_Sept30_2018 7/8/2018   4:00       0         
July01_Sept30_2018 7/8/2018   5:00       0         
July01_Sept30_2018 7/8/2018   6:00       0         
July01_Sept30_2018 7/8/2018   7:00       0         
July01_Sept30_2018 7/8/2018   8:00       0         
July01_Sept30_2018 7/8/2018   9:00       0         
July01_Sept30_2018 7/8/2018   10:00      0         
July01_Sept30_2018 7/8/2018   11:00      0         
July01_Sept30_2018 7/8/2018   12:00      0         
July01_Sept30_2018 7/8/2018   13:00      0         
July01_Sept30_2018 7/8/2018   14:00      0         
July01_Sept30_2018 7/8/2018   15:00      0         
July01_Sept30_2018 7/8/2018   16:00      0         
July01_Sept30_2018 7/8/2018   17:00      0         
July01_Sept30_2018 7/8/2018   18:00      0         
July01_Sept30_2018 7/8/2018   19:00      0         
July01_Sept30_2018 7/8/2018   20:00      0         
July01_Sept30_2018 7/8/2018   21:00      0         
July01_Sept30_2018 7/8/2018   22:00      0         
July01_Sept30_2018 7/8/2018   23:00      0         
July01_Sept30_2018 7/9/2018   0:00       0         
July01_Sept30_2018 7/9/2018   1:00       0         
July01_Sept30_2018 7/9/2018   2:00       0         
July01_Sept30_2018 7/9/2018   3:00       0         
July01_Sept30_2018 7/9/2018   4:00       0         
July01_Sept30_2018 7/9/2018   5:00       0         
July01_Sept30_2018 7/9/2018   6:00       0         
July01_Sept30_2018 7/9/2018   7:00       0         
July01_Sept30_2018 7/9/2018   8:00       0         
July01_Sept30_2018 7/9/2018   9:00       0         
July01_Sept30_2018 7/9/2018   10:00      0         
July01_Sept30_2018 7/9/2018   11:00      0         
July01_Sept30_2018 7/9/2018   12:00      0         
July01_Sept30_2018 7/9/2018   13:00      0         
July01_Sept30_2018 7/9/2018   14:00      0         
July01_Sept30_2018 7/9/2018   15:00      0         
July01_Sept30_2018 7/9/2018   16:00      0         
July01_Sept30_2018 7/9/2018   17:00      0         
July01_Sept30_2018 7/9/2018   18:00      0         
July01_Sept30_2018 7/9/2018   19:00      0         
July01_Sept30_2018 7/9/2018   20:00      0         
July01_Sept30_2018 7/9/2018   21:00      0         
July01_Sept30_2018 7/9/2018   22:00      0         
July01_Sept30_2018 7/9/2018   23:00      0         
July01_Sept30_2018 7/10/2018  0:00       0         
July01_Sept30_2018 7/10/2018  1:00       0         
July01_Sept30_2018 7/10/2018  2:00       0         
July01_Sept30_2018 7/10/2018  3:00       0         
July01_Sept30_2018 7/10/2018  4:00       0         
July01_Sept30_2018 7/10/2018  5:00       0         
July01_Sept30_2018 7/10/2018  6:00       0         
July01_Sept30_2018 7/10/2018  7:00       0         
July01_Sept30_2018 7/10/2018  8:00       0         
July01_Sept30_2018 7/10/2018  9:00       0         
July01_Sept30_2018 7/10/2018  10:00      0         
July01_Sept30_2018 7/10/2018  11:00      0         
July01_Sept30_2018 7/10/2018  12:00      0         
July01_Sept30_2018 7/10/2018  13:00      0         
July01_Sept30_2018 7/10/2018  14:00      0         
July01_Sept30_2018 7/10/2018  15:00      0         
July01_Sept30_2018 7/10/2018  16:00      0         
July01_Sept30_2018 7/10/2018  17:00      0         
July01_Sept30_2018 7/10/2018  18:00      0         
July01_Sept30_2018 7/10/2018  19:00      0         
July01_Sept30_2018 7/10/2018  20:00      0         
July01_Sept30_2018 7/10/2018  21:00      0         
July01_Sept30_2018 7/10/2018  22:00      0         
July01_Sept30_2018 7/10/2018  23:00      0         
July01_Sept30_2018 7/11/2018  0:00       0         
July01_Sept30_2018 7/11/2018  1:00       0         
July01_Sept30_2018 7/11/2018  2:00       0         
July01_Sept30_2018 7/11/2018  3:00       0         
July01_Sept30_2018 7/11/2018  4:00       0         
July01_Sept30_2018 7/11/2018  5:00       0         
July01_Sept30_2018 7/11/2018  6:00       0         
July01_Sept30_2018 7/11/2018  7:00       0         
July01_Sept30_2018 7/11/2018  8:00       0         
July01_Sept30_2018 7/11/2018  9:00       0         
July01_Sept30_2018 7/11/2018  10:00      0         
July01_Sept30_2018 7/11/2018  11:00      0         
July01_Sept30_2018 7/11/2018  12:00      0         
July01_Sept30_2018 7/11/2018  13:00      0         
July01_Sept30_2018 7/11/2018  14:00      0         
July01_Sept30_2018 7/11/2018  15:00      0         
July01_Sept30_2018 7/11/2018  16:00      0         
July01_Sept30_2018 7/11/2018  17:00      0         
July01_Sept30_2018 7/11/2018  18:00      0         
July01_Sept30_2018 7/11/2018  19:00      0         
July01_Sept30_2018 7/11/2018  20:00      0         
July01_Sept30_2018 7/11/2018  21:00      0         
July01_Sept30_2018 7/11/2018  22:00      0         
July01_Sept30_2018 7/11/2018  23:00      0         
July01_Sept30_2018 7/12/2018  0:00       0         
July01_Sept30_2018 7/12/2018  1:00       0         
July01_Sept30_2018 7/12/2018  2:00       0         
July01_Sept30_2018 7/12/2018  3:00       0         
July01_Sept30_2018 7/12/2018  4:00       0         
July01_Sept30_2018 7/12/2018  5:00       0         
July01_Sept30_2018 7/12/2018  6:00       0         
July01_Sept30_2018 7/12/2018  7:00       0         
July01_Sept30_2018 7/12/2018  8:00       0         
July01_Sept30_2018 7/12/2018  9:00       0         
July01_Sept30_2018 7/12/2018  10:00      0         
July01_Sept30_2018 7/12/2018  11:00      0         
July01_Sept30_2018 7/12/2018  12:00      0         
July01_Sept30_2018 7/12/2018  13:00      0         
July01_Sept30_2018 7/12/2018  14:00      0.05      
July01_Sept30_2018 7/12/2018  15:00      0         
July01_Sept30_2018 7/12/2018  16:00      0         
July01_Sept30_2018 7/12/2018  17:00      0         
July01_Sept30_2018 7/12/2018  18:00      0         
July01_Sept30_2018 7/12/2018  19:00      0         
July01_Sept30_2018 7/12/2018  20:00      0         
July01_Sept30_2018 7/12/2018  21:00      0         
July01_Sept30_2018 7/12/2018  22:00      0         
July01_Sept30_2018 7/12/2018  23:00      0         
July01_Sept30_2018 7/13/2018  0:00       0         
July01_Sept30_2018 7/13/2018  1:00       0         
July01_Sept30_2018 7/13/2018  2:00       0         
July01_Sept30_2018 7/13/2018  3:00       0         
July01_Sept30_2018 7/13/2018  4:00       0         
July01_Sept30_2018 7/13/2018  5:00       0         
July01_Sept30_2018 7/13/2018  6:00       0         
July01_Sept30_2018 7/13/2018  7:00       0         
July01_Sept30_2018 7/13/2018  8:00       0         
July01_Sept30_2018 7/13/2018  9:00       0         
July01_Sept30_2018 7/13/2018  10:00      0         
July01_Sept30_2018 7/13/2018  11:00      0         
July01_Sept30_2018 7/13/2018  12:00      0         
July01_Sept30_2018 7/13/2018  13:00      0         
July01_Sept30_2018 7/13/2018  14:00      0         
July01_Sept30_2018 7/13/2018  15:00      0         
July01_Sept30_2018 7/13/2018  16:00      0         
July01_Sept30_2018 7/13/2018  17:00      0         
July01_Sept30_2018 7/13/2018  18:00      0         
July01_Sept30_2018 7/13/2018  19:00      0         
July01_Sept30_2018 7/13/2018  20:00      0         
July01_Sept30_2018 7/13/2018  21:00      0         
July01_Sept30_2018 7/13/2018  22:00      0.005     
July01_Sept30_2018 7/13/2018  23:00      0.03      
July01_Sept30_2018 7/14/2018  0:00       0.005     
July01_Sept30_2018 7/14/2018  1:00       0         
July01_Sept30_2018 7/14/2018  2:00       0         
July01_Sept30_2018 7/14/2018  3:00       0.005     
July01_Sept30_2018 7/14/2018  4:00       0.005     
July01_Sept30_2018 7/14/2018  5:00       0.01      
July01_Sept30_2018 7/14/2018  6:00       0.01      
July01_Sept30_2018 7/14/2018  7:00       0.005     
July01_Sept30_2018 7/14/2018  8:00       0         
July01_Sept30_2018 7/14/2018  9:00       0         
July01_Sept30_2018 7/14/2018  10:00      0         
July01_Sept30_2018 7/14/2018  11:00      0         
July01_Sept30_2018 7/14/2018  12:00      0         
July01_Sept30_2018 7/14/2018  13:00      0         
July01_Sept30_2018 7/14/2018  14:00      0         
July01_Sept30_2018 7/14/2018  15:00      0         
July01_Sept30_2018 7/14/2018  16:00      0         
July01_Sept30_2018 7/14/2018  17:00      0         
July01_Sept30_2018 7/14/2018  18:00      0         
July01_Sept30_2018 7/14/2018  19:00      0         
July01_Sept30_2018 7/14/2018  20:00      0         
July01_Sept30_2018 7/14/2018  21:00      0         
July01_Sept30_2018 7/14/2018  22:00      0         
July01_Sept30_2018 7/14/2018  23:00      0         
July01_Sept30_2018 7/15/2018  0:00       0         
July01_Sept30_2018 7/15/2018  1:00       0         
July01_Sept30_2018 7/15/2018  2:00       0         
July01_Sept30_2018 7/15/2018  3:00       0         
July01_Sept30_2018 7/15/2018  4:00       0         
July01_Sept30_2018 7/15/2018  5:00       0         
July01_Sept30_2018 7/15/2018  6:00       0         
July01_Sept30_2018 7/15/2018  7:00       0         
July01_Sept30_2018 7/15/2018  8:00       0         
July01_Sept30_2018 7/15/2018  9:00       0         
July01_Sept30_2018 7/15/2018  10:00      0         
July01_Sept30_2018 7/15/2018  11:00      0         
July01_Sept30_2018 7/15/2018  12:00      0         
July01_Sept30_2018 7/15/2018  13:00      0         
July01_Sept30_2018 7/15/2018  14:00      0         
July01_Sept30_2018 7/15/2018  15:00      0         
July01_Sept30_2018 7/15/2018  16:00      0         
July01_Sept30_2018 7/15/2018  17:00      0         
July01_Sept30_2018 7/15/2018  18:00      0         
July01_Sept30_2018 7/15/2018  19:00      0         
July01_Sept30_2018 7/15/2018  20:00      0         
July01_Sept30_2018 7/15/2018  21:00      0         
July01_Sept30_2018 7/15/2018  22:00      0         
July01_Sept30_2018 7/15/2018  23:00      0         
July01_Sept30_2018 7/16/2018  0:00       0         
July01_Sept30_2018 7/16/2018  1:00       0         
July01_Sept30_2018 7/16/2018  2:00       0         
July01_Sept30_2018 7/16/2018  3:00       0         
July01_Sept30_2018 7/16/2018  4:00       0         
July01_Sept30_2018 7/16/2018  5:00       0         
July01_Sept30_2018 7/16/2018  6:00       0         
July01_Sept30_2018 7/16/2018  7:00       0         
July01_Sept30_2018 7/16/2018  8:00       0         
July01_Sept30_2018 7/16/2018  9:00       0         
July01_Sept30_2018 7/16/2018  10:00      0         
July01_Sept30_2018 7/16/2018  11:00      0         
July01_Sept30_2018 7/16/2018  12:00      0.005     
July01_Sept30_2018 7/16/2018  13:00      0         
July01_Sept30_2018 7/16/2018  14:00      0         
July01_Sept30_2018 7/16/2018  15:00      0         
July01_Sept30_2018 7/16/2018  16:00      0         
July01_Sept30_2018 7/16/2018  17:00      0         
July01_Sept30_2018 7/16/2018  18:00      0         
July01_Sept30_2018 7/16/2018  19:00      0         
July01_Sept30_2018 7/16/2018  20:00      0         
July01_Sept30_2018 7/16/2018  21:00      0         
July01_Sept30_2018 7/16/2018  22:00      0         
July01_Sept30_2018 7/16/2018  23:00      0         
July01_Sept30_2018 7/17/2018  0:00       0         
July01_Sept30_2018 7/17/2018  1:00       0         
July01_Sept30_2018 7/17/2018  2:00       0         
July01_Sept30_2018 7/17/2018  3:00       0         
July01_Sept30_2018 7/17/2018  4:00       0         
July01_Sept30_2018 7/17/2018  5:00       0         
July01_Sept30_2018 7/17/2018  6:00       0         
July01_Sept30_2018 7/17/2018  7:00       0         
July01_Sept30_2018 7/17/2018  8:00       0         
July01_Sept30_2018 7/17/2018  9:00       0         
July01_Sept30_2018 7/17/2018  10:00      0         